Circuit: * C:\users\quan\My Documents\VGU\Power Meter\ltspice\Draft2.asc

.OP point found by inspection.

Date: Sun Jan 08 15:04:12 2023
Total elapsed time: 0.101 seconds.

tnom = 27
temp = 27
method = modified trap
totiter = 2090
traniter = 2090
tranpoints = 1046
accept = 1046
rejected = 0
matrix size = 3
fillins = 0
solver = Normal
Matrix Compiler1:       3 opcodes  0.1/[0.0]/0.1
Matrix Compiler2: 175 bytes object code size  0.1/0.1/[0.1]

