Circuit: * C:\users\quan\My Documents\VGU\Power Meter\ltspice\Draft1.asc

Direct Newton iteration for .op point succeeded.

Date: Thu Jan 05 13:44:38 2023
Total elapsed time: 0.163 seconds.

tnom = 27
temp = 27
method = modified trap
totiter = 20037
traniter = 20034
tranpoints = 10018
accept = 10018
rejected = 0
matrix size = 1
fillins = 0
solver = Normal
Matrix Compiler1: off  0.1/0.1/[0.1]
Matrix Compiler2:       4 opcodes  0.1/[0.1]/0.1

