Circuit: * C:\users\quan\My Documents\VGU\Power Meter\ltspice\example_PMOS_high_switch.asc

Warning: Multiple definitions of model "2scr375p" Type: BJT
Warning: Multiple definitions of model "bc857b" Type: BJT
Warning: Multiple definitions of model "bc847c" Type: BJT
Warning: Multiple definitions of model "bc847b" Type: BJT
WARNING: Node NC_01 is floating.
WARNING: Node NC_02 is floating.
WARNING: Node NC_03 is floating.

WARNING: Less than two connections to node NC_01.  This node is used by C1.
WARNING: Less than two connections to node NC_02.  This node is used by C2.
WARNING: Less than two connections to node NC_03.  This node is used by C3.
Direct Newton iteration for .op point succeeded.
Ignoring empty pin current: Ix(u1:n009)
Ignoring empty pin current: Ix(u1:nreset)
Ignoring empty pin current: Ix(u1:n002)
Ignoring empty pin current: Ix(u1:n005)
Ignoring empty pin current: Ix(u1:n008)
Ignoring empty pin current: Ix(u2:n009)
Ignoring empty pin current: Ix(u2:nreset)
Ignoring empty pin current: Ix(u2:n002)
Ignoring empty pin current: Ix(u2:n005)
Ignoring empty pin current: Ix(u2:n008)
Ignoring empty pin current: Ix(u3:in)
Ignoring empty pin current: Ix(u3:out)
Ignoring empty pin current: Ix(u3:vcc)
Ignoring empty pin current: Ix(u3:gnd)
Ignoring empty pin current: Ix(u3:nout)
Ignoring empty pin current: Ix(u4:in)
Ignoring empty pin current: Ix(u4:out)
Ignoring empty pin current: Ix(u4:vcc)
Ignoring empty pin current: Ix(u4:gnd)
Ignoring empty pin current: Ix(u4:nout)
Ignoring empty pin current: Ix(u5:in)
Ignoring empty pin current: Ix(u5:out)
Ignoring empty pin current: Ix(u5:vcc)
Ignoring empty pin current: Ix(u5:gnd)
Ignoring empty pin current: Ix(u5:nout)
Ignoring empty pin current: Ix(u1:n009)
Ignoring empty pin current: Ix(u1:nreset)
Ignoring empty pin current: Ix(u1:n002)
Ignoring empty pin current: Ix(u1:n005)
Ignoring empty pin current: Ix(u1:n008)
Ignoring empty pin current: Ix(u2:n009)
Ignoring empty pin current: Ix(u2:nreset)
Ignoring empty pin current: Ix(u2:n002)
Ignoring empty pin current: Ix(u2:n005)
Ignoring empty pin current: Ix(u2:n008)
Ignoring empty pin current: Ix(u3:in)
Ignoring empty pin current: Ix(u3:out)
Ignoring empty pin current: Ix(u3:vcc)
Ignoring empty pin current: Ix(u3:gnd)
Ignoring empty pin current: Ix(u3:nout)
Ignoring empty pin current: Ix(u4:in)
Ignoring empty pin current: Ix(u4:out)
Ignoring empty pin current: Ix(u4:vcc)
Ignoring empty pin current: Ix(u4:gnd)
Ignoring empty pin current: Ix(u4:nout)
Ignoring empty pin current: Ix(u5:in)
Ignoring empty pin current: Ix(u5:out)
Ignoring empty pin current: Ix(u5:vcc)
Ignoring empty pin current: Ix(u5:gnd)
Ignoring empty pin current: Ix(u5:nout)
Heightened Def Con from 1.0013e-005 to 1.0016e-005

Date: Fri Jan 13 07:25:10 2023
Total elapsed time: 0.666 seconds.

tnom = 27
temp = 27
method = modified trap
totiter = 27803
traniter = 27759
tranpoints = 7900
accept = 6234
rejected = 1667
matrix size = 89
fillins = 41
solver = Normal
Matrix Compiler1: 6.03 KB object code size  1.5/0.9/[0.4]
Matrix Compiler2: 7.27 KB object code size  0.7/1.4/[0.5]

