Circuit: * C:\users\quan\My Documents\VGU\Power Meter\ltspice\example2_NMOS_low_switch.asc

Direct Newton iteration for .op point succeeded.

Date: Thu Jan 05 15:09:48 2023
Total elapsed time: 0.514 seconds.

tnom = 27
temp = 27
method = modified trap
totiter = 50566
traniter = 50561
tranpoints = 25089
accept = 25072
rejected = 17
matrix size = 12
fillins = 1
solver = Normal
Matrix Compiler1: 598 bytes object code size  0.3/0.2/[0.2]
Matrix Compiler2: 894 bytes object code size  0.2/0.3/[0.2]

