Circuit: * C:\users\quan\My Documents\VGU\Power-Meter\ltspice\example_PMOS_high_switch.asc

Warning: Multiple definitions of model "2scr375p" Type: BJT
Warning: Multiple definitions of model "bc857b" Type: BJT
Warning: Multiple definitions of model "bc847c" Type: BJT
Warning: Multiple definitions of model "bc847b" Type: BJT
Direct Newton iteration for .op point succeeded.

Date: Wed Jun 21 22:52:37 2023
Total elapsed time: 0.162 seconds.

tnom = 27
temp = 27
method = modified trap
totiter = 3124
traniter = 3108
tranpoints = 1418
accept = 1319
rejected = 99
matrix size = 25
fillins = 6
solver = Normal
Matrix Compiler1: 1.63 KB object code size  0.5/0.3/[0.1]
Matrix Compiler2: off  [0.2]/0.4/0.3

