Circuit: * C:\users\quan\My Documents\VGU\Power-Meter\ltspice\example_PMOS_high_switch.asc

Warning: Multiple definitions of model "2scr375p" Type: BJT
Warning: Multiple definitions of model "bc857b" Type: BJT
Warning: Multiple definitions of model "bc847c" Type: BJT
Warning: Multiple definitions of model "bc847b" Type: BJT
Direct Newton iteration for .op point succeeded.

Date: Fri Jun 23 01:07:19 2023
Total elapsed time: 0.179 seconds.

tnom = 27
temp = 27
method = modified trap
totiter = 3058
traniter = 3042
tranpoints = 1395
accept = 1300
rejected = 95
matrix size = 25
fillins = 6
solver = Normal
Matrix Compiler1: 1.63 KB object code size  0.6/0.4/[0.2]
Matrix Compiler2: 2.10 KB object code size  0.3/0.5/[0.3]

