Circuit: * C:\users\quan\My Documents\VGU\Power-Meter\ltspice\PMOS_sw_reduced_parts.asc

Warning: Multiple definitions of model "2scr375p" Type: BJT
Warning: Multiple definitions of model "bc857b" Type: BJT
Warning: Multiple definitions of model "bc847c" Type: BJT
Warning: Multiple definitions of model "bc847b" Type: BJT
WARNING: Node NC_01 is floating.
WARNING: Node NC_02 is floating.

WARNING: Less than two connections to node NC_01.  This node is used by C1.
WARNING: Less than two connections to node NC_02.  This node is used by C3.
Direct Newton iteration failed to find .op point.  (Use ".option noopiter" to skip.)
Starting Gmin stepping
Gmin = 10
Gmin = 1.07374
Gmin = 0.115292
Gmin = 0.0123794
Gmin = 0.00132923
Gmin = 0.000142725
Gmin = 1.5325e-005
Gmin = 1.6455e-006
vernier = 0.5
vernier = 0.25
Gmin = 5.61917e-007
vernier = 0.125
vernier = 0.0625
vernier = 0.03125
vernier = 0.015625
vernier = 0.0078125
vernier = 0.00390625
Gmin = 5.60274e-007
vernier = 0.00520833
vernier = 0.00694444
Gmin = 5.52911e-007
vernier = 0.00925925
Gmin = 5.41523e-007
vernier = 0.00462963
vernier = 0.00231481
vernier = 0.00115741
vernier = 0.00154321
vernier = 0.000771604
Gmin = 5.41992e-007
vernier = 0.000578703
vernier = 0.000434027
Gmin = 0
Gmin stepping failed

Starting source stepping with srcstepmethod=0
Source Step = 3.0303%
Source Step = 33.3333%
Source Step = 63.6364%
Source Step = 72.9167%
Source Step = 73.0291%
Source Step = 73.0587%
Source Step = 73.0883%
Source Step = 73.1179%
Source Step = 73.1475%
vernier = 0.00146484
Source Step = 73.1786%
Source Step = 73.223%
Source Step = 73.2673%
Source Step = 73.3117%
Source Step = 73.3561%
Source Step = 73.4005%
vernier = 0.00219727
Source Step = 73.4671%
Source Step = 73.5337%
Source Step = 73.6003%
Source Step = 73.6668%
Source Step = 73.7334%
vernier = 0.0032959
Source Step = 73.83%
Source Step = 73.9299%
Source Step = 74.0297%
Source Step = 74.1296%
Source Step = 74.2295%
vernier = 0.00494385
Source Step = 74.3693%
Source Step = 74.5191%
Source Step = 74.6689%
Source Step = 74.8187%
Source Step = 74.9686%
vernier = 0.00741577
Source Step = 75.1708%
Source Step = 75.3955%
Source Step = 75.6202%
Source Step = 75.845%
Source Step = 76.0697%
vernier = 0.0111237
Source Step = 76.3618%
Source Step = 76.6989%
Source Step = 77.036%
Source Step = 77.3731%
Source Step = 77.7101%
vernier = 0.0166855
Source Step = 78.1315%
Source Step = 78.6371%
Source Step = 79.1427%
Source Step = 79.6484%
Source Step = 80.154%
vernier = 0.0250282
Source Step = 80.7607%
Source Step = 81.5192%
Source Step = 82.2776%
Source Step = 83.036%
Source Step = 83.7944%
vernier = 0.0375423
Source Step = 84.6666%
Source Step = 85.8043%
Source Step = 86.9419%
Source Step = 88.0796%
Source Step = 89.2172%
vernier = 0.0563135
Source Step = 90.4686%
Source Step = 92.1751%
Source Step = 93.8816%
Source Step = 95.5881%
Source Step = 97.2945%
vernier = 0.0844703
Source Step = 99.0863%
Source stepping succeeded in finding the operating point.

Ignoring empty pin current: Ix(u1:n009)
Ignoring empty pin current: Ix(u1:nreset)
Ignoring empty pin current: Ix(u1:n002)
Ignoring empty pin current: Ix(u1:n005)
Ignoring empty pin current: Ix(u1:n008)
Ignoring empty pin current: Ix(u2:n009)
Ignoring empty pin current: Ix(u2:nreset)
Ignoring empty pin current: Ix(u2:n002)
Ignoring empty pin current: Ix(u2:n005)
Ignoring empty pin current: Ix(u2:n008)
Ignoring empty pin current: Ix(u3:in)
Ignoring empty pin current: Ix(u3:out)
Ignoring empty pin current: Ix(u3:vcc)
Ignoring empty pin current: Ix(u3:gnd)
Ignoring empty pin current: Ix(u3:nout)
Ignoring empty pin current: Ix(u4:in)
Ignoring empty pin current: Ix(u4:out)
Ignoring empty pin current: Ix(u4:vcc)
Ignoring empty pin current: Ix(u4:gnd)
Ignoring empty pin current: Ix(u4:nout)
Ignoring empty pin current: Ix(u5:in)
Ignoring empty pin current: Ix(u5:out)
Ignoring empty pin current: Ix(u5:vcc)
Ignoring empty pin current: Ix(u5:gnd)
Ignoring empty pin current: Ix(u5:nout)
Ignoring empty pin current: Ix(u6:in)
Ignoring empty pin current: Ix(u6:out)
Ignoring empty pin current: Ix(u6:vcc)
Ignoring empty pin current: Ix(u6:gnd)
Ignoring empty pin current: Ix(u6:nout)
Ignoring empty pin current: Ix(u7:in)
Ignoring empty pin current: Ix(u7:out)
Ignoring empty pin current: Ix(u7:vcc)
Ignoring empty pin current: Ix(u7:gnd)
Ignoring empty pin current: Ix(u7:nout)
Ignoring empty pin current: Ix(u8:in)
Ignoring empty pin current: Ix(u8:out)
Ignoring empty pin current: Ix(u8:vcc)
Ignoring empty pin current: Ix(u8:gnd)
Ignoring empty pin current: Ix(u8:nout)
Ignoring empty pin current: Ix(u9:in)
Ignoring empty pin current: Ix(u9:out)
Ignoring empty pin current: Ix(u9:vcc)
Ignoring empty pin current: Ix(u9:gnd)
Ignoring empty pin current: Ix(u9:nout)
Ignoring empty pin current: Ix(u10:in)
Ignoring empty pin current: Ix(u10:out)
Ignoring empty pin current: Ix(u10:vcc)
Ignoring empty pin current: Ix(u10:gnd)
Ignoring empty pin current: Ix(u11:in)
Ignoring empty pin current: Ix(u11:out)
Ignoring empty pin current: Ix(u11:vcc)
Ignoring empty pin current: Ix(u11:gnd)
Ignoring empty pin current: Ix(u1:n009)
Ignoring empty pin current: Ix(u1:nreset)
Ignoring empty pin current: Ix(u1:n002)
Ignoring empty pin current: Ix(u1:n005)
Ignoring empty pin current: Ix(u1:n008)
Ignoring empty pin current: Ix(u2:n009)
Ignoring empty pin current: Ix(u2:nreset)
Ignoring empty pin current: Ix(u2:n002)
Ignoring empty pin current: Ix(u2:n005)
Ignoring empty pin current: Ix(u2:n008)
Ignoring empty pin current: Ix(u3:in)
Ignoring empty pin current: Ix(u3:out)
Ignoring empty pin current: Ix(u3:vcc)
Ignoring empty pin current: Ix(u3:gnd)
Ignoring empty pin current: Ix(u3:nout)
Ignoring empty pin current: Ix(u4:in)
Ignoring empty pin current: Ix(u4:out)
Ignoring empty pin current: Ix(u4:vcc)
Ignoring empty pin current: Ix(u4:gnd)
Ignoring empty pin current: Ix(u4:nout)
Ignoring empty pin current: Ix(u5:in)
Ignoring empty pin current: Ix(u5:out)
Ignoring empty pin current: Ix(u5:vcc)
Ignoring empty pin current: Ix(u5:gnd)
Ignoring empty pin current: Ix(u5:nout)
Ignoring empty pin current: Ix(u6:in)
Ignoring empty pin current: Ix(u6:out)
Ignoring empty pin current: Ix(u6:vcc)
Ignoring empty pin current: Ix(u6:gnd)
Ignoring empty pin current: Ix(u6:nout)
Ignoring empty pin current: Ix(u7:in)
Ignoring empty pin current: Ix(u7:out)
Ignoring empty pin current: Ix(u7:vcc)
Ignoring empty pin current: Ix(u7:gnd)
Ignoring empty pin current: Ix(u7:nout)
Ignoring empty pin current: Ix(u8:in)
Ignoring empty pin current: Ix(u8:out)
Ignoring empty pin current: Ix(u8:vcc)
Ignoring empty pin current: Ix(u8:gnd)
Ignoring empty pin current: Ix(u8:nout)
Ignoring empty pin current: Ix(u9:in)
Ignoring empty pin current: Ix(u9:out)
Ignoring empty pin current: Ix(u9:vcc)
Ignoring empty pin current: Ix(u9:gnd)
Ignoring empty pin current: Ix(u9:nout)
Ignoring empty pin current: Ix(u10:in)
Ignoring empty pin current: Ix(u10:out)
Ignoring empty pin current: Ix(u10:vcc)
Ignoring empty pin current: Ix(u10:gnd)
Ignoring empty pin current: Ix(u11:in)
Ignoring empty pin current: Ix(u11:out)
Ignoring empty pin current: Ix(u11:vcc)
Ignoring empty pin current: Ix(u11:gnd)
Heightened Def Con from 1.89511e-005 ++to 1.89516e-005
Heightened Def Con from 1.97053e-005 +to 1.97053e-005
Heightened Def Con from 1.97053e-005 ++to 1.97053e-005
Heightened Def Con from 1.97053e-005 to 1.97054e-005
Heightened Def Con from 0.100001 +++++++++++to 0.100001
Heightened Def Con from 0.100001 to 0.100001
Heightened Def Con from 0.160001 to 0.160001
Heightened Def Con from 0.160001 to 0.160001
Heightened Def Con from 0.160002 to 0.160002
Heightened Def Con from 0.160002 to 0.160002

Date: Tue Apr 25 11:05:59 2023
Total elapsed time: 3.705 seconds.

tnom = 27
temp = 27
method = modified trap
totiter = 15531
traniter = 9905
tranpoints = 2553
accept = 1996
rejected = 583
matrix size = 194
fillins = 847
solver = Normal
Thread vector: 22.2/16.8[4] 9.5/7.8[4] 10.7/6.8[4] 1.4/3.4[1]  2592/500
Matrix Compiler1: 122.93 KB object code size  23.7/11.6/[5.0]
Matrix Compiler2: 30.91 KB object code size  7.0/8.6/[1.5]

