Circuit: * C:\users\quan\My Documents\VGU\Power Meter\ltspice\PMOS_sw_crowbar.asc

Warning: Multiple definitions of model "2scr375p" Type: BJT
Warning: Multiple definitions of model "bc857b" Type: BJT
Warning: Multiple definitions of model "bc847c" Type: BJT
Warning: Multiple definitions of model "bc847b" Type: BJT
u1:1:vigf: Missing value, assumed 0V @ DC
u1:1:viak: Missing value, assumed 0V @ DC
Direct Newton iteration failed to find .op point.  (Use ".option noopiter" to skip.)
Starting Gmin stepping
Gmin = 10
Gmin = 1.07374
Gmin = 0.115292
Gmin = 0.0123794
Gmin = 0.00132923
vernier = 0.5
vernier = 0.25
vernier = 0.125
Gmin = 0.000733268
vernier = 0.0625
vernier = 0.03125
vernier = 0.015625
vernier = 0.0078125
vernier = 0.00390625
Gmin = 0.000744549
vernier = 0.00195313
vernier = 0.000976563
vernier = 0.000488281
Gmin = 0
Gmin stepping succeeded in finding the operating point.


Date: Fri Apr 07 14:39:23 2023
Total elapsed time: 0.404 seconds.

tnom = 27
temp = 27
method = modified trap
totiter = 20396
traniter = 18855
tranpoints = 4583
accept = 3506
rejected = 1077
matrix size = 61
fillins = 40
solver = Normal
Matrix Compiler1: 3.96 KB object code size  0.9/0.6/[0.3]
Matrix Compiler2: 4.89 KB object code size  0.6/0.9/[0.5]

