Circuit: * C:\users\quan\My Documents\VGU\Power Meter\ltspice\PMOS_sw_reduced_parts.asc

Warning: Multiple definitions of model "2scr375p" Type: BJT
Warning: Multiple definitions of model "bc857b" Type: BJT
Warning: Multiple definitions of model "bc847c" Type: BJT
Warning: Multiple definitions of model "bc847b" Type: BJT
WARNING: Node NC_01 is floating.
WARNING: Node NC_02 is floating.

WARNING: Less than two connections to node NC_01.  This node is used by C1.
WARNING: Less than two connections to node NC_02.  This node is used by C3.
WARNING: Less than two connections to node OCP.  This node is used by D7.
Direct Newton iteration failed to find .op point.  (Use ".option noopiter" to skip.)
Starting Gmin stepping
Gmin = 10
Gmin = 1.07374
Gmin = 0.115292
Gmin = 0.0123794
Gmin = 0.00132923
Gmin = 0.000142725
Gmin = 1.5325e-005
Gmin = 1.6455e-006
Gmin = 1.76685e-007
Gmin = 1.89714e-008
Gmin = 2.03704e-009
Gmin = 2.18725e-010
Gmin = 2.34854e-011
Gmin = 2.52173e-012
Gmin = 2.70769e-013
Gmin = 0
Gmin stepping succeeded in finding the operating point.

Ignoring empty pin current: Ix(u1:n009)
Ignoring empty pin current: Ix(u1:nreset)
Ignoring empty pin current: Ix(u1:n002)
Ignoring empty pin current: Ix(u1:n005)
Ignoring empty pin current: Ix(u1:n008)
Ignoring empty pin current: Ix(u2:n009)
Ignoring empty pin current: Ix(u2:nreset)
Ignoring empty pin current: Ix(u2:n002)
Ignoring empty pin current: Ix(u2:n005)
Ignoring empty pin current: Ix(u2:n008)
Ignoring empty pin current: Ix(u3:in)
Ignoring empty pin current: Ix(u3:out)
Ignoring empty pin current: Ix(u3:vcc)
Ignoring empty pin current: Ix(u3:gnd)
Ignoring empty pin current: Ix(u3:nout)
Ignoring empty pin current: Ix(u4:in)
Ignoring empty pin current: Ix(u4:out)
Ignoring empty pin current: Ix(u4:vcc)
Ignoring empty pin current: Ix(u4:gnd)
Ignoring empty pin current: Ix(u4:nout)
Ignoring empty pin current: Ix(u5:in)
Ignoring empty pin current: Ix(u5:out)
Ignoring empty pin current: Ix(u5:vcc)
Ignoring empty pin current: Ix(u5:gnd)
Ignoring empty pin current: Ix(u5:nout)
Ignoring empty pin current: Ix(u7:in)
Ignoring empty pin current: Ix(u7:out)
Ignoring empty pin current: Ix(u7:vcc)
Ignoring empty pin current: Ix(u7:gnd)
Ignoring empty pin current: Ix(u7:nout)
Ignoring empty pin current: Ix(u9:in)
Ignoring empty pin current: Ix(u9:out)
Ignoring empty pin current: Ix(u9:vcc)
Ignoring empty pin current: Ix(u9:gnd)
Ignoring empty pin current: Ix(u9:nout)
Ignoring empty pin current: Ix(u10:in)
Ignoring empty pin current: Ix(u10:out)
Ignoring empty pin current: Ix(u10:vcc)
Ignoring empty pin current: Ix(u10:gnd)
Ignoring empty pin current: Ix(u11:in)
Ignoring empty pin current: Ix(u11:out)
Ignoring empty pin current: Ix(u11:vcc)
Ignoring empty pin current: Ix(u11:gnd)
Ignoring empty pin current: Ix(u1:n009)
Ignoring empty pin current: Ix(u1:nreset)
Ignoring empty pin current: Ix(u1:n002)
Ignoring empty pin current: Ix(u1:n005)
Ignoring empty pin current: Ix(u1:n008)
Ignoring empty pin current: Ix(u2:n009)
Ignoring empty pin current: Ix(u2:nreset)
Ignoring empty pin current: Ix(u2:n002)
Ignoring empty pin current: Ix(u2:n005)
Ignoring empty pin current: Ix(u2:n008)
Ignoring empty pin current: Ix(u3:in)
Ignoring empty pin current: Ix(u3:out)
Ignoring empty pin current: Ix(u3:vcc)
Ignoring empty pin current: Ix(u3:gnd)
Ignoring empty pin current: Ix(u3:nout)
Ignoring empty pin current: Ix(u4:in)
Ignoring empty pin current: Ix(u4:out)
Ignoring empty pin current: Ix(u4:vcc)
Ignoring empty pin current: Ix(u4:gnd)
Ignoring empty pin current: Ix(u4:nout)
Ignoring empty pin current: Ix(u5:in)
Ignoring empty pin current: Ix(u5:out)
Ignoring empty pin current: Ix(u5:vcc)
Ignoring empty pin current: Ix(u5:gnd)
Ignoring empty pin current: Ix(u5:nout)
Ignoring empty pin current: Ix(u7:in)
Ignoring empty pin current: Ix(u7:out)
Ignoring empty pin current: Ix(u7:vcc)
Ignoring empty pin current: Ix(u7:gnd)
Ignoring empty pin current: Ix(u7:nout)
Ignoring empty pin current: Ix(u9:in)
Ignoring empty pin current: Ix(u9:out)
Ignoring empty pin current: Ix(u9:vcc)
Ignoring empty pin current: Ix(u9:gnd)
Ignoring empty pin current: Ix(u9:nout)
Ignoring empty pin current: Ix(u10:in)
Ignoring empty pin current: Ix(u10:out)
Ignoring empty pin current: Ix(u10:vcc)
Ignoring empty pin current: Ix(u10:gnd)
Ignoring empty pin current: Ix(u11:in)
Ignoring empty pin current: Ix(u11:out)
Ignoring empty pin current: Ix(u11:vcc)
Ignoring empty pin current: Ix(u11:gnd)
Heightened Def Con from 1.47635e-005 to 1.47665e-005
Heightened Def Con from 1.5043e-005 to 1.50431e-005
Heightened Def Con from 0.20002 to 0.20002
Heightened Def Con from 0.200021 +++to 0.200021
Heightened Def Con from 0.200021 +to 0.200021
Heightened Def Con from 0.200021 +to 0.200021
Heightened Def Con from 0.200021 ++++to 0.200021
Heightened Def Con from 0.200021 ++to 0.200021
Heightened Def Con from 0.200021 +to 0.200021
Heightened Def Con from 0.200021 +to 0.200021
Heightened Def Con from 0.200021 to 0.200021
Heightened Def Con from 0.200021 ++to 0.200021
Heightened Def Con from 0.200021 +to 0.200021
Heightened Def Con from 0.200021 ++to 0.200021
Heightened Def Con from 0.200021 to 0.200021
Heightened Def Con from 0.200021 to 0.200021
Heightened Def Con from 0.68002 to 0.68002
Heightened Def Con from 0.680021 to 0.680021

Date: Sat Apr 08 14:52:51 2023
Total elapsed time: 0.781 seconds.

tnom = 27
temp = 27
method = modified trap
totiter = 14800
traniter = 14232
tranpoints = 3576
accept = 2723
rejected = 889
matrix size = 167
fillins = 178
solver = Normal
Thread vector: 17.3/14.9[3] 6.8/5.7[3] 4.9/5.6[1] 1.1/2.9[1]  2592/500
Matrix Compiler1: 21.79 KB object code size  3.9/2.1/[1.1]
Matrix Compiler2: 17.15 KB object code size  2.7/4.1/[1.3]

